Version 4
SHEET 1 2104 680
WIRE 864 -224 816 -224
WIRE 992 -224 928 -224
WIRE 192 -96 112 -96
WIRE 288 -96 192 -96
WIRE 384 -96 288 -96
WIRE 816 -96 816 -224
WIRE 816 -96 560 -96
WIRE 848 -96 816 -96
WIRE 992 -96 992 -224
WIRE 992 -96 928 -96
WIRE 1024 -96 992 -96
WIRE 192 -80 192 -96
WIRE 1376 -32 1328 -32
WIRE 1424 -32 1376 -32
WIRE 1584 -32 1504 -32
WIRE 192 -16 112 -16
WIRE 288 -16 192 -16
WIRE 192 48 192 -16
WIRE 1248 64 1248 -32
WIRE 560 160 560 -96
WIRE 560 160 528 160
WIRE 688 160 560 160
WIRE 1376 160 1376 -32
WIRE 1408 160 1376 160
WIRE 688 192 688 160
WIRE 816 192 688 192
WIRE 1584 192 1584 -32
WIRE 1584 192 1552 192
WIRE 1632 192 1584 192
WIRE 1712 192 1696 192
WIRE 1760 192 1712 192
WIRE 1888 192 1840 192
WIRE 1968 192 1888 192
WIRE 1024 224 1024 -96
WIRE 1024 224 960 224
WIRE 1040 224 1024 224
WIRE 1120 224 1104 224
WIRE 1168 224 1120 224
WIRE 1296 224 1248 224
WIRE 1408 224 1296 224
WIRE 96 240 96 208
WIRE 320 240 320 208
WIRE 816 256 768 256
WIRE 768 304 768 256
FLAG 96 320 0
FLAG 320 320 0
FLAG 192 48 V-
IOPIN 192 48 In
FLAG 384 -96 PD
IOPIN 384 -96 Out
FLAG 96 208 V+
IOPIN 96 208 Out
FLAG 320 208 V-
IOPIN 320 208 Out
FLAG 768 304 0
FLAG 848 304 V-
IOPIN 848 304 In
FLAG 848 144 V+
IOPIN 848 144 In
FLAG 528 160 PD
IOPIN 528 160 In
FLAG -256 48 V+
IOPIN -256 48 In
FLAG -256 304 V-
IOPIN -256 304 In
FLAG 1440 112 V+
IOPIN 1440 112 In
FLAG 1440 272 V-
IOPIN 1440 272 In
FLAG 1248 64 0
FLAG 1296 288 0
FLAG 1120 304 0
FLAG 1712 272 0
FLAG 1888 256 0
SYMBOL cap 176 -80 R0
SYMATTR InstName C1
SYMATTR Value 1p
SYMBOL res 272 -112 R0
SYMATTR InstName R1
SYMATTR Value 70G
SYMBOL current 112 -16 R180
WINDOW 0 24 80 Left 2
WINDOW 3 24 0 Left 2
SYMATTR InstName I1
SYMATTR Value AC 10u
SYMBOL voltage 96 224 R0
SYMATTR InstName V1
SYMATTR Value 5
SYMBOL voltage 320 336 R180
WINDOW 0 24 96 Left 2
WINDOW 3 24 16 Left 2
SYMATTR InstName V2
SYMATTR Value 5
SYMBOL res 944 -112 R90
WINDOW 0 0 56 VBottom 2
WINDOW 3 32 56 VTop 2
SYMATTR InstName R3
SYMATTR Value 50k
SYMBOL njf -304 128 R0
SYMATTR InstName J1
SYMATTR Value JBF862
SYMBOL res -272 32 R0
SYMATTR InstName R4
SYMATTR Value 4.3k
SYMBOL res -272 208 R0
SYMATTR InstName R5
SYMATTR Value 4.99k
SYMBOL Opamps\\LTC6269 848 224 R0
SYMATTR InstName U1
SYMBOL Opamps\\LTC6269 1440 192 R0
SYMATTR InstName U2
SYMBOL cap 1104 208 R90
WINDOW 0 0 32 VBottom 2
WINDOW 3 32 32 VTop 2
SYMATTR InstName C2
SYMATTR Value 1.6n
SYMBOL res 1104 208 R0
SYMATTR InstName R2
SYMATTR Value 1k
SYMBOL res 1264 208 R90
WINDOW 0 0 56 VBottom 2
WINDOW 3 32 56 VTop 2
SYMATTR InstName R6
SYMATTR Value 1k
SYMBOL cap 1280 224 R0
SYMATTR InstName C3
SYMATTR Value 2.7p
SYMBOL res 1520 -48 R90
WINDOW 0 0 56 VBottom 2
WINDOW 3 32 56 VTop 2
SYMATTR InstName R7
SYMATTR Value 910
SYMBOL res 1344 -48 R90
WINDOW 0 0 56 VBottom 2
WINDOW 3 32 56 VTop 2
SYMATTR InstName R8
SYMATTR Value 100
SYMBOL res 1696 176 R0
SYMATTR InstName R9
SYMATTR Value 49.9
SYMBOL res 1856 176 R90
WINDOW 0 0 56 VBottom 2
WINDOW 3 32 56 VTop 2
SYMATTR InstName R10
SYMATTR Value 49.9
SYMBOL cap 1872 192 R0
SYMATTR InstName C4
SYMATTR Value 75p
SYMBOL cap 1696 176 R90
WINDOW 0 0 32 VBottom 2
WINDOW 3 32 32 VTop 2
SYMATTR InstName C5
SYMATTR Value 6.8n
SYMBOL cap 928 -240 R90
WINDOW 0 0 32 VBottom 2
WINDOW 3 32 32 VTop 2
SYMATTR InstName C6
SYMATTR Value 0.1p
TEXT 648 392 Left 2 !;ac dec 100 1k 300MEG
TEXT 648 360 Left 2 !.noise V(n005) I1 dec 100 200k 60MEG
TEXT -232 -88 Left 2 !.include BF862.lib
